MIT License

The majority of this software is (c) 2002-2018 The ROMS/TOMS Group and is
governed by the ROMS license, which is in ROMS/License_ROMS.txt. The
modifications are (c) 2018 National Institute of Water and Atmospheric
Research Ltd (NIWA). You can determine the modifications with a "git diff"
between the original ROMS code in the roms-trunk branch and the modified
code in the master branch, which contains this file.

NIWA and the ROMS/TOMS Group ask that users make appropriate acknowledgement
of the ROMS/TOMS Group, individual developers, participating agencies and
institutions, and funding agencies. One way to do this is to cite one or more
of the relevant publications listed at:

  http://www.myroms.org/papers  

NIWA and the ROMS/TOMS Group recommend that users register at the ROMS site

  https://www.myroms.org/
  
Permission is hereby granted, free of charge, to any person obtaining a copy
of this software and associated documentation files (the "Software"), to deal
in the Software without restriction, including without limitation the rights
to use, copy, modify, merge, publish, distribute, sublicense, and/or sell
copies of the Software, and to permit persons to whom the Software is
furnished to do so, subject to the following conditions:

The above copyright notice and this permission notice shall be included in all
copies or substantial portions of the Software.

THE SOFTWARE IS PROVIDED "AS IS", WITHOUT WARRANTY OF ANY KIND, EXPRESS OR
IMPLIED, INCLUDING BUT NOT LIMITED TO THE WARRANTIES OF MERCHANTABILITY,
FITNESS FOR A PARTICULAR PURPOSE AND NONINFRINGEMENT. IN NO EVENT SHALL THE
AUTHORS OR COPYRIGHT HOLDERS BE LIABLE FOR ANY CLAIM, DAMAGES OR OTHER
LIABILITY, WHETHER IN AN ACTION OF CONTRACT, TORT OR OTHERWISE, ARISING FROM,
OUT OF OR IN CONNECTION WITH THE SOFTWARE OR THE USE OR OTHER DEALINGS IN THE
SOFTWARE.
