ROMS/TOMS Framework: March 6, 2021
===================

Copyright (c) 2002-2021 The ROMS/TOMS Group
  Licensed under a MIT/X style license
  See License_ROMS.txt

svn: $HeadURL$
svn: $LastChangedBy$
svn: $LastChangedRevision$
svn: $LastChangedDate$

